189
	Energy:     291.3215499
H         -6.92631      -11.54620       13.73380
H         -7.27726      -10.93657       15.38775
C         -7.69220      -11.04432       14.36269
H        -12.26985      -21.42589       15.20281
H         -8.69778      -12.85168       14.85708
H        -11.49891      -19.15523       14.54932
H        -10.66304      -16.86809       14.14764
H         -8.73084      -12.66932       12.38976
H         -9.80272      -14.55020       14.08183
C         -8.97968      -11.88169       14.39841
O         -8.00886      -10.75772       11.05135
H         -6.43136       -8.83241        7.07361
H         -3.11149       -2.01248        3.76817
H         -7.88317      -10.02815       13.95873
C        -13.26742      -21.25178       14.74213
H         -7.69987      -10.83665        6.29683
C        -12.47188      -18.93002       14.05914
H        -13.24399      -21.61318       13.69086
C         -9.53111      -12.14260       12.95493
C        -11.60239      -16.56119       13.63666
H         -6.90656       -9.21470        4.65310
O         -4.52004       -3.33477        5.57630
H        -12.40642      -19.21431       12.98647
H        -14.33136      -21.65116       16.58860
N        -10.69504      -14.25505       13.66134
H        -11.48047      -16.71330       12.54267
C         -7.47336       -8.70329        6.70476
C         -4.03283       -1.80529        3.23922
C         -8.20095      -10.04364        6.89225
H         -8.15628      -10.37730        7.94740
H         -3.18650       -0.58057        1.64545
C        -14.31931      -22.03499       15.54424
C         -7.40802       -8.38775        5.19994
H         -9.58025      -11.10234       16.34870
C         -9.04093      -10.21960       11.42677
H         -6.37416       -6.30163        7.61676
C        -13.56832      -19.74610       14.76553
C        -13.99830      -23.53597       15.57579
C        -10.00856      -11.21488       15.32978
H         -6.82210       -7.46389        5.01160
C        -12.75025      -17.42492       14.19165
C         -4.07311       -1.01907        2.08414
C        -10.75872      -13.05663       13.00650
C        -11.85712      -15.07983       13.95349
O         -7.53147       -7.07440        9.72486
H        -13.62078      -19.41865       15.82786
N         -9.85516      -10.85869       12.32669
C         -5.50249       -3.03126        4.91313
H        -12.85697      -17.19792       15.27611
C         -8.23838       -7.74927        8.98628
H        -12.03097      -15.00105       15.04910
H         -8.53141       -8.17001       11.50974
C         -5.28180       -2.25958        3.65914
H         -6.02246       -4.11029        7.21352
N         -7.34101       -6.30387        7.25519
C         -8.13429       -7.51832        7.47324
C         -9.29620       -8.77766       10.98031
H        -10.92225      -11.83900       15.41766
N         -9.14332       -8.62254        9.53367
H         -9.25950       -9.96773        6.56297
H        -10.29341      -10.20691       14.96382
H        -15.32512      -21.87874       15.09594
H         -8.42986       -8.25306        4.78402
H        -14.55253      -19.55148       14.28558
C         -6.98640       -3.89042        6.70565
O        -11.81851      -12.67253       12.53031
C         -5.35283       -0.85104        1.56937
H        -13.70420      -17.16598       13.68213
H        -10.67543      -10.36642       12.70103
S         -4.60343        0.96138       -0.45309
C         -7.82331       -5.15923        6.68318
H        -12.77507      -14.71939       13.44062
N         -6.75622       -3.32530        5.37510
H         -3.39320        3.15147       -2.17148
H         -9.78626       -9.14297        8.91915
O         -1.22977        7.08921      -13.81684
S         -6.44011       -1.69277        2.56145
H         -9.16882       -7.36746        7.09348
C         -5.68295       -0.04192        0.37496
C        -10.65677       -8.20396       11.39659
C         -4.23760        3.22244       -2.84439
C         -7.69257       -2.84092        7.56933
H         -3.42700        4.73173       -4.21249
H        -10.76339       -8.18698       12.50176
H         -7.06773       -1.92464        7.63577
H         -0.28820        9.45413      -13.22015
H         -7.84990       -3.23133        8.59817
H         -7.57722       -3.04738        4.81636
H         -0.98140        8.72765      -11.78214
O         -8.95629       -5.12225        6.22332
C         -4.25693        4.08764       -3.95340
C         -1.88448        8.09659      -13.60260
H          3.19751       16.99464      -16.18065
C         -1.25636        9.18440      -12.75070
C         -5.70003        1.51060       -1.61045
H        -11.48327       -8.79266       10.94402
H        -10.73913       -7.15243       11.04777
C         -5.40928        2.48244       -2.68983
O          0.73541       13.30919      -16.66665
O          2.59575       17.72434      -15.97830
C         -6.92339        0.04629       -0.24898
H         -8.67763       -2.56658        7.13405
C         -6.93011        0.90317       -1.36249
H         -1.20790       16.59699      -16.00066
H         -0.24163       11.46505      -14.15291
O         -3.12602        8.17486      -14.13180
H         -1.05149       10.75044      -18.71580
C         -5.43639        4.01905       -4.68902
H         -2.90074       10.95636      -16.71568
O         -2.54488        9.05743      -10.08046
H         -7.80031       -0.49349        0.08355
C         -2.08056       10.48767      -12.51419
S         -4.88116        6.04978       -6.61513
C         -0.39177       13.32649      -16.19174
S         -6.45535        2.89544       -3.94451
H         -1.48477       11.15358      -11.85270
N         -1.16374       11.58107      -14.59781
C          1.33162       17.51212      -15.55315
C         -0.44088       15.83001      -16.25155
O         -1.51391       11.53252      -19.04617
C         -5.76235        4.77528       -5.91963
C         -2.45462       11.97169      -16.78097
C         -3.51039        9.52743      -10.66072
H         -4.31419        8.44297       -8.19486
H          1.60129       15.37842      -15.59333
C         -2.26638       11.20611      -13.86771
C         -1.10932       11.99715      -16.00764
O         -0.35321       14.94914      -18.59631
H         -3.72781        8.91502      -14.00388
C          0.79853       16.11031      -15.37081
H         -7.81633        1.08268       -1.95674
C         -0.14118       15.97337      -17.74076
N         -1.01458       14.51773      -15.94262
N         -3.36306       10.21241      -11.84147
C         -2.28613       12.29754      -18.24557
O          0.61442       18.47130      -15.31515
H         -3.16372       12.70332      -16.33772
H         -0.16009       15.02670      -19.54166
N         -4.93242        8.32679       -9.01157
C         -5.91608        6.28129       -7.93728
C         -6.87420        4.52972       -6.71506
C         -4.90272        9.34601      -10.07115
O          0.27572       17.03578      -18.17848
O         -3.39164       11.37928      -14.30639
C         -5.81576        7.27939       -9.03856
H         -0.46849       11.22629      -16.49134
H         -4.23086       10.55059      -12.28079
C         -6.95345        5.35582       -7.83756
H         -1.97308       14.50393      -15.56468
H          0.51153       15.99386      -14.30383
H         -5.56819        9.04451      -10.90937
H         -7.60947        3.76492       -6.50190
O         -2.86465       13.26182      -18.72107
H         -4.74973       11.04652       -8.70296
C         -5.40521       10.70052       -9.53125
O         -6.60115        7.17017       -9.96990
H         -7.76214        5.28322       -8.55328
H         -5.35772       11.45651      -10.34615
C         -6.82446       10.62834       -9.03246
O         -7.13936        9.83256       -7.98821
H         -8.04455        9.77405       -7.65126
O         -7.69137       11.30750       -9.56223
C        -15.01366      -24.30392       16.43556
H        -14.00618      -23.93754       14.53874
H        -12.98321      -23.68039       16.00756
C        -14.67641      -25.80057       16.48651
H        -14.99603      -23.89349       17.46955
H        -16.03470      -24.16916       16.01548
C        -15.66378      -26.56581       17.37894
H        -14.70754      -26.21877       15.45632
H        -13.64908      -25.92915       16.89362
C        -15.31553      -28.05969       17.42977
H        -15.62469      -26.14651       18.40871
H        -16.69523      -26.44174       16.98147
C        -16.28410      -28.82757       18.33899
H        -15.36337      -28.48151       16.40158
H        -14.28017      -28.18137       17.81821
C        -15.93079      -30.32006       18.38280
H        -17.32201      -28.70733       17.95735
H        -16.23047      -28.40798       19.36795
C        -16.89007      -31.08933       19.29902
H        -15.98936      -30.74059       17.35453
H        -14.89104      -30.44068       18.75976
C        -16.54125      -32.57483       19.33991
H        -16.83081      -30.67896       20.33077
H        -17.93253      -30.97632       18.92934
H        -17.24936      -33.10586       20.01053
H        -15.50983      -32.71956       19.72641
H        -16.61530      -33.01715       18.32354
