189
	Energy:     295.3227610
O        -40.75145        1.34499      -19.88870
O        -35.17629        0.55567      -14.87202
H        -47.09955       -4.17901      -21.56848
O        -46.63143       -3.45190      -22.00286
O        -39.76147       -0.92759      -18.61847
C        -34.51246        0.19398      -15.83111
C        -40.21668        0.72804      -20.79860
H        -30.83000       -1.72877      -10.93241
H        -42.13014       -1.14805      -19.88199
H        -31.30959       -3.38948      -10.37582
H        -29.83989       -2.62407       -9.72665
C        -30.45434       -2.73348      -10.64211
O        -33.82352       -1.77706      -14.02656
H        -43.82958       -0.73932      -21.81813
H        -38.40455        1.62524      -20.63090
H        -36.23338       -1.99863      -15.42067
O        -33.25244        0.65622      -15.97539
H        -37.89896       -1.45041      -17.30718
C        -45.30519       -3.51252      -22.25039
O        -26.62570       -0.36312       -9.21094
O        -38.92849        0.97328      -21.11734
H        -24.89924        0.58211       -7.81262
H        -35.99986       -0.19118      -17.25481
H        -35.10548       -4.36365      -13.16504
H        -41.84744        0.27973      -22.03001
C        -41.52168       -1.48562      -20.74996
C        -41.00093       -0.28055      -21.58174
C        -35.11797       -0.73085      -16.84904
H        -33.83011       -4.86966      -11.98955
H        -32.34530       -3.11024      -12.33494
N        -43.63290       -1.71373      -22.09067
C        -39.58834       -1.97683      -19.21776
O        -22.56488        0.83159       -6.77585
O        -44.67475       -4.50772      -21.92629
C        -35.55132       -2.11306      -16.29184
C        -34.31748       -5.11707      -12.95528
H        -39.67967       -4.01947      -17.34523
H        -44.86743       -3.24765      -24.91094
N        -37.59714       -2.32361      -17.76073
C        -33.63684       -2.74138      -14.75048
C        -24.37173        0.02790       -8.62262
C        -42.48000       -2.29428      -21.63336
C        -44.62924       -2.35457      -22.94916
N        -40.40879       -2.31538      -20.26186
C        -25.46073       -0.62756       -9.47547
H        -18.18784        0.47312       -3.62668
C        -22.48004       -0.34736       -7.09360
H        -34.81691       -6.10360      -12.84875
S        -20.27463       -0.36260       -5.41319
N        -31.81682       -3.40373      -13.16628
H        -32.69863        0.40262      -16.72663
H        -38.51734       -5.62632      -16.07112
C        -36.37982       -2.82481      -17.37852
C        -38.46342       -2.93051      -18.78967
C        -17.65846       -0.46937       -3.58394
C        -29.63991       -3.34795      -11.79238
C        -44.04856       -2.78968      -24.31279
H        -16.04104        0.18289       -2.27907
O        -27.40592       -2.94078      -10.10840
N        -34.40367       -2.93996      -15.87164
C        -39.12522       -4.24561      -18.28188
C        -16.48251       -0.62644       -2.84572
N        -23.38398       -0.86510       -7.99499
C        -21.36404       -1.10854       -6.45933
H        -24.40126        1.75377       -9.97204
H        -11.72569       -0.09389        0.56188
H        -34.41201       -0.89538      -17.69179
C        -23.65909        1.05562       -9.52832
C        -32.59360       -3.79247      -14.35474
H        -40.37849       -0.67194      -22.41626
C        -27.38553       -2.41244      -11.21077
H         -9.60872       -0.15763        2.01440
N        -28.44777       -2.54711      -12.07264
H        -22.92378        1.67408       -8.97942
C        -30.45376       -3.57479      -13.08116
C        -19.28209       -1.68273       -5.11840
C        -18.07160       -1.62010       -4.25308
C        -11.10298       -0.97489        0.64471
C        -33.29300       -5.16784      -14.10273
O        -38.03099       -5.94948      -16.84206
S        -13.74217       -1.30287       -1.26142
C         -9.94653       -1.00906        1.43754
H        -39.86494       -4.61948      -19.01965
H        -43.25753       -3.55739      -24.18767
O        -44.02884       -1.30134      -26.28354
H        -29.29333       -4.35858      -11.48277
C        -15.93936       -1.90388       -2.91699
O        -42.21997       -3.45250      -21.92294
H        -23.36382       -1.86712       -8.23528
H        -26.55080       -0.62217      -11.97741
C        -20.96623       -2.44109       -6.59136
H        -40.23974       -3.22702      -20.70842
C        -43.48933       -1.62916      -25.09015
H        -45.42529       -1.60393      -23.16112
C        -38.17717       -5.39158      -18.06268
N        -25.16562       -1.34531      -10.59855
C        -19.80297       -2.76085       -5.84111
C        -26.15950       -1.61342      -11.65542
C        -14.68573       -2.31403       -2.23233
O         -7.62138       -1.72060        2.98225
O        -35.94246       -3.83124      -17.91208
H        -28.37997       -2.09687      -12.99783
H        -34.19620       -3.79142      -16.40920
S        -16.94801       -2.84628       -3.91116
H        -37.85841       -3.10953      -19.70572
C        -11.37745       -2.17695       -0.00339
C        -12.55094       -2.43263       -0.87682
H        -33.83972       -5.46790      -15.02152
H        -31.69577       -6.07948      -12.90175
C         -9.28738       -2.23644        1.42133
H        -43.68569       -0.56382      -26.80787
C        -32.26393       -6.27547      -13.83516
H        -21.48184       -3.16038       -7.21323
H        -31.91497       -3.91887      -15.22663
C         -8.06207       -2.55953        2.20969
H        -23.11881        0.54219      -10.35221
O        -29.84287       -4.01412      -14.04581
C        -14.07120       -3.56435       -2.26559
H        -19.35583       -3.74626       -5.83935
C        -12.88168       -3.63009       -1.51064
S        -10.15958       -3.27804        0.40713
H        -32.77566       -7.25588      -13.73087
H        -24.17592       -1.57008      -10.76722
H         -6.63522       -4.17736        4.00803
O        -42.54106       -0.99326      -24.65465
O        -37.54653       -5.84320      -19.00599
H        -14.46496       -4.40794       -2.81665
C        -25.50349       -2.28771      -12.90426
N         -7.46144       -3.78017        2.11072
H         -5.18383       -2.35538        3.05410
H        -12.28607       -4.52992       -1.43056
H        -31.55150       -6.34816      -14.68439
C         -6.33953       -4.21553        2.93659
H        -24.83990       -0.41259      -13.80443
H        -26.27982       -2.41297      -13.68878
C        -24.41508       -1.40233      -13.53347
H         -4.18219       -4.08963        4.61851
H        -25.74967       -4.34969      -12.20743
C         -5.03963       -3.40705        2.72964
C        -24.94508       -3.68574      -12.58800
H         -7.85197       -4.47213        1.45427
H        -23.55301       -1.24582      -12.85477
H         -2.66208       -2.28115        3.85607
H        -24.13561       -3.63813      -11.83082
C         -3.89537       -4.04922        3.54420
H         -6.12512       -5.27741        2.68294
C         -2.55423       -3.30084        3.42600
H         -4.76478       -3.41663        1.65275
H        -24.03262       -1.87704      -14.46234
H         -1.72783       -4.21089        5.23216
H        -24.53522       -4.14940      -13.51056
H         -0.14889       -2.38865        4.63467
H         -3.75515       -5.09047        3.17824
C         -1.44302       -4.07395        4.16550
H         -2.27246       -3.21040        2.35431
C         -0.07811       -3.36480        4.10673
H          0.74347       -4.46367        5.80612
H         -1.34688       -5.07710        3.69413
C          1.01712       -4.23540        4.75236
H          0.19675       -3.17880        3.04545
C          2.39416       -3.55006        4.73359
H          1.08178       -5.19193        4.18791
C          3.48474       -4.48598        5.28508
H          2.34859       -2.62186        5.34448
H          2.65653       -3.27741        3.68784
C          4.86574       -3.81067        5.29511
H          3.52899       -5.39436        4.64428
H          3.22558       -4.79476        6.32179
C          5.95811       -4.78524        5.76582
H          4.83472       -2.92799        5.97111
H          5.11503       -3.46542        4.26765
C          7.33804       -4.11062        5.79867
H          5.99143       -5.65056        5.06736
H          5.71224       -5.15883        6.78426
C          8.43405       -5.10496        6.21106
H          7.31285       -3.26524        6.52115
H          7.57749       -3.71071        4.78876
C          9.81065       -4.42719        6.26276
H          8.46376       -5.93758        5.47372
H          8.19694       -5.52442        7.21361
C         10.90769       -5.43040        6.64318
H          9.78559       -3.60676        7.01363
H         10.04622       -3.99281        5.26614
C         12.27645       -4.75711        6.70839
H         10.94571       -6.24502        5.88715
H         10.68165       -5.87618        7.63627
H         12.53999       -4.31763        5.72277
H         13.04885       -5.50769        6.97968
H         12.27621       -3.95526        7.47722
