165
	Energy:     279.9308077
C         -7.10021       -4.14072        3.21055
N         -8.20033       -3.74631        2.34211
C         -8.71532       -2.48432        2.30341
O         -8.22614       -1.59976        2.99176
C         -9.90098       -2.16328        1.46733
C        -10.49096       -0.90579        1.37693
C        -11.62174       -0.87363        0.55358
C        -11.93664       -2.10593       -0.01249
C        -13.09243       -2.36386       -0.89827
C        -13.45342       -3.57662       -1.48327
C        -14.62130       -3.49818       -2.26725
C        -15.18246       -2.22365       -2.29846
C        -16.40215       -1.78913       -3.01549
C        -16.89582       -0.49103       -2.98340
C        -18.05212       -0.31171       -3.74050
C        -18.49268       -1.46531       -4.38401
C        -19.68766       -1.50816       -5.26116
C        -20.22334       -2.58346       -5.97401
C        -21.36462       -2.24286       -6.74265
C        -21.72596       -0.89863       -6.63009
C        -22.81135       -0.12406       -7.28798
O        -22.88591        1.06019       -6.98801
N        -23.69895       -0.64464       -8.19760
C        -24.66630        0.23918       -8.86012
H        -25.22054        0.80333       -8.07528
C        -23.93458        1.25470       -9.76356
C        -25.71178       -0.45478       -9.72530
O        -26.89037       -0.21168       -9.50379
N        -25.36214       -1.20968      -10.80694
C        -26.32424       -1.57408      -11.85845
H        -26.75542       -0.61912      -12.23487
C        -27.50955       -2.40290      -11.37187
O        -27.50029       -2.88683      -10.24887
N        -28.57015       -2.61073      -12.21575
C        -29.73060       -3.43791      -11.89063
H        -29.35241       -4.43256      -11.56656
C        -30.53877       -2.81988      -10.73637
C        -30.56199       -3.70069      -13.15679
O        -29.96380       -4.15219      -14.12422
N        -31.92427       -3.53211      -13.22336
C        -32.71465       -3.91260      -14.40173
H        -32.04422       -4.06776      -15.27550
C        -33.72209       -2.83238      -14.80120
O        -33.87968       -1.85910      -14.08116
N        -34.48960       -3.01011      -15.92224
C        -35.60797       -2.14971      -16.34883
H        -36.29095       -2.01466      -15.48103
C        -35.13253       -0.78069      -16.90456
C        -34.50751        0.12812      -15.88354
O        -35.16691        0.50939      -14.92895
O        -33.23371        0.55388      -16.01944
C        -36.44802       -2.84034      -17.43638
O        -36.03106       -3.85693      -17.96934
N        -37.65291       -2.31605      -17.82066
C        -38.52867       -2.91775      -18.84196
H        -37.92626       -3.11951      -19.75528
C        -39.21606       -4.21307      -18.31470
C        -38.29210       -5.37389      -18.07216
O        -37.67028       -5.85687      -19.00573
O        -38.15788       -5.91022      -16.84046
C        -39.63674       -1.95328      -19.28178
O        -39.79975       -0.89619      -18.69185
N        -40.45739       -2.29477      -20.32287
C        -41.57237       -1.47227      -20.81551
H        -42.18381       -1.13727      -19.94847
C        -41.06099       -0.26483      -21.64914
C        -40.28762        0.75318      -20.86711
O        -40.82933        1.36599      -19.95850
O        -39.00186        1.01156      -21.18549
C        -42.52264       -2.29162      -21.69670
O        -42.24749       -3.44620      -21.98910
N        -43.68591       -1.72886      -22.14712
C        -44.67712       -2.38783      -22.99767
H        -45.48961       -1.65302      -23.20157
C        -44.09896       -2.80973      -24.36649
C        -43.57277       -1.63634      -25.14744
O        -42.63520       -0.97962      -24.71965
O        -44.13070       -1.31934      -26.33523
C        -45.32324       -3.56086      -22.29449
O        -44.67040       -4.54444      -21.97940
O        -46.64757       -3.52720      -22.03277
C        -33.45156       -5.26399      -14.13357
C        -32.45000       -6.39572      -13.86170
C        -34.46646       -5.17457      -12.98015
C        -25.62688       -2.28554      -13.06237
C        -24.56946       -1.38830      -13.72623
C        -25.01099       -3.63891      -12.66640
S        -20.63616       -0.16422       -5.58234
S        -17.42407       -2.72402       -3.99818
S        -14.22325       -1.20641       -1.35674
S        -10.79407       -3.23568        0.50898
H         -8.63642       -4.48385        1.76940
H        -10.12246       -0.03205        1.89908
H        -12.19562        0.02858        0.38794
H        -12.89495       -4.49368       -1.34886
H        -15.03882       -4.34868       -2.78951
H        -16.43426        0.31618       -2.42998
H        -18.54713        0.64728       -3.81494
H        -19.80151       -3.57981       -5.95290
H        -23.68041       -1.65054       -8.42176
H        -23.22222        1.88930       -9.20272
H        -24.66906        1.93788      -10.24182
H        -23.36508        0.73146      -10.56108
H        -24.36217       -1.41144      -10.94193
H        -28.52546       -2.19109      -13.15707
H        -29.91444       -2.68093       -9.83205
H        -31.37434       -3.49021      -10.44426
H        -30.94124       -1.82859      -11.03670
H        -32.44186       -3.22275      -12.39074
H        -34.30525       -3.87071      -16.45466
H        -35.99724       -0.21788      -17.31600
H        -34.42605       -0.96581      -17.74256
H        -32.68174        0.28324      -16.76607
H        -37.93897       -1.43393      -17.37245
H        -39.96217       -4.58527      -19.04668
H        -39.76718       -3.96008      -17.38283
H        -38.63681       -5.56110      -16.07615
H        -40.29071       -3.21256      -20.75859
H        -41.91332        0.28536      -22.09926
H        -40.43384       -0.65216      -22.48201
H        -38.48524        1.67015      -20.70008
H        -43.89600       -0.75750      -21.87257
H        -43.28992       -3.55977      -24.24917
H        -44.91267       -3.28535      -24.95775
H        -43.80962       -0.57333      -26.86148
H        -47.09565       -4.26469      -21.59464
H        -34.01229       -5.55558      -15.04677
H        -31.86902       -6.20392      -12.93513
H        -31.74583       -6.49586      -14.71509
H        -32.98618       -7.36131      -13.74318
H        -33.96604       -4.93425      -12.01929
H        -34.99306       -6.14559      -12.86254
H        -35.23341       -4.40014      -13.19118
H        -26.39076       -2.48615      -13.84404
H        -23.72504       -1.15896      -13.04562
H        -25.03231       -0.43362      -14.05440
H        -24.15387       -1.89448      -14.62373
H        -24.21206       -3.51550      -11.90650
H        -24.57123       -4.13269      -13.55908
H        -25.78919       -4.31695      -12.25706
H        -21.89086       -2.95620       -7.36238
C         -5.76987       -3.45049        2.85620
H         -6.95325       -5.23908        3.11196
H         -7.37288       -3.92669        4.26742
C         -4.65188       -3.95765        3.78267
H         -5.85987       -2.35022        2.96960
H         -5.50810       -3.68012        1.80041
C         -3.29668       -3.30519        3.47498
H         -4.55638       -5.05957        3.66270
H         -4.92540       -3.73786        4.83862
C         -2.20868       -3.85956        4.40800
H         -3.37695       -2.20426        3.61159
H         -3.01675       -3.51644        2.41962
C         -0.83960       -3.22817        4.12441
H         -2.13584       -4.96062        4.26594
H         -2.49121       -3.65490        5.46449
C          0.23270       -3.81092        5.05552
H         -0.90271       -2.12819        4.27730
H         -0.55395       -3.42768        3.06811
C          1.60174       -3.19316        4.78503
H          0.30174       -4.91031        4.90285
H         -0.04424       -3.61581        6.11462
H          1.91627       -3.39264        3.73853
H          2.35279       -3.63827        5.47176
H          1.57138       -2.09601        4.95547
