165
	Energy:     315.1520843
C         -6.37914       -3.62270        3.59415
N         -7.49410       -3.25269        2.71573
C         -8.09416       -2.02790        2.65647
O         -7.63869       -1.09553        3.30286
C         -9.33673       -1.80565        1.83363
C         -9.95219       -0.57031        1.62837
C        -11.12687       -0.62789        0.85282
C        -11.48016       -1.91218        0.43786
C        -12.69516       -2.26045       -0.37168
C        -13.13925       -3.53745       -0.72416
C        -14.32727       -3.54889       -1.49735
C        -14.84086       -2.28009       -1.77466
C        -16.05979       -1.93541       -2.58379
C        -16.48188       -0.63363       -2.83645
C        -17.63122       -0.54037       -3.63700
C        -18.16221       -1.76511       -4.04605
C        -19.37794       -1.89035       -4.92748
C        -20.02519       -3.03143       -5.42554
C        -21.14893       -2.75414       -6.26519
C        -21.40338       -1.38892       -6.43724
C        -22.44046       -0.63936       -7.23440
O        -22.38529        0.57772       -7.11981
N        -23.41819       -1.18548       -8.05390
C        -24.31990       -0.27591       -8.80038
H        -24.74665        0.43461       -8.05578
C        -23.51641        0.54251       -9.83837
C        -25.54388       -0.84809       -9.55665
O        -26.64809       -0.42541       -9.24181
N        -25.41541       -1.60560      -10.68913
C        -26.47587       -1.68411      -11.72498
H        -26.75445       -0.63518      -11.97388
C        -27.78905       -2.36870      -11.31656
O        -27.86964       -2.94000      -10.23893
N        -28.85541       -2.36807      -12.19378
C        -30.11317       -3.09166      -11.97829
H        -29.84174       -4.12763      -11.67745
C        -30.92964       -2.44992      -10.84807
C        -30.89324       -3.26250      -13.30416
O        -30.26093       -3.70405      -14.25454
N        -32.25175       -3.05886      -13.43769
C        -32.99739       -3.45341      -14.64999
H        -32.30115       -3.50627      -15.51596
C        -34.10916       -2.46366      -15.03845
O        -34.37644       -1.53486      -14.29185
N        -34.84556       -2.68645      -16.17846
C        -36.05347       -1.94809      -16.60483
H        -36.76042       -1.91626      -15.74636
C        -35.73161       -0.51905      -17.11517
C        -35.22005        0.42140      -16.06128
O        -35.92426        0.69619      -15.10216
O        -34.00213        0.99256      -16.17312
C        -36.79795       -2.69604      -17.73190
O        -36.25871       -3.64634      -18.27912
N        -38.04706       -2.29918      -18.13870
C        -38.82749       -2.96593      -19.20083
H        -38.18649       -3.06405      -20.10501
C        -39.36787       -4.35144      -18.73199
C        -38.32263       -5.40600      -18.50176
O        -37.62740       -5.78172      -19.43285
O        -38.15910       -5.96780      -17.28514
C        -40.04392       -2.13571      -19.64084
O        -40.35917       -1.13356      -19.01648
N        -40.79265       -2.54585      -20.71346
C        -42.01626       -1.88699      -21.20197
H        -42.69994       -1.71853      -20.34050
C        -41.70360       -0.55681      -21.94152
C        -41.16159        0.53320      -21.06868
O        -41.83809        0.97310      -20.15026
O        -39.93914        1.04823      -21.31600
C        -42.78932       -2.78974      -22.17321
O        -42.31193       -3.85668      -22.53764
N        -44.02377       -2.41192      -22.62178
C        -44.82168       -3.20049      -23.55488
H        -44.28188       -4.12396      -23.86445
C        -45.12799       -2.38081      -24.82189
C        -43.87404       -1.98054      -25.54598
O        -43.11514       -2.83560      -25.97809
O        -43.59409       -0.67288      -25.72898
C        -46.10962       -3.61215      -22.88993
O        -46.37798       -4.79744      -22.76004
O        -46.97174       -2.67382      -22.44172
C        -33.62166       -4.87632      -14.45185
C        -32.54480       -5.94476      -14.21993
C        -34.65364       -4.91807      -13.31060
C        -25.92949       -2.32562      -13.04537
C        -24.76356       -1.51822      -13.64070
C        -25.53389       -3.79971      -12.86441
S        -20.22716       -0.57124       -5.53594
S        -17.15982       -2.97626       -3.38012
S        -13.80218       -1.16063       -1.03166
S        -10.29058       -2.97007        1.03717
H         -7.88928       -4.01037        2.13995
H         -9.56631        0.35766        2.03091
H        -11.70837        0.25335        0.61697
H        -12.62419       -4.44286       -0.43055
H        -14.78898       -4.46336       -1.84501
H        -15.96870        0.24120       -2.45964
H        -18.05729        0.41456       -3.91367
H        -19.69824       -4.03793       -5.19987
H        -23.52512       -2.20728       -8.13251
H        -22.69393        1.13051       -9.39107
H        -24.18243        1.26692      -10.35536
H        -23.06552       -0.12795      -10.60032
H        -24.47405       -1.95312      -10.91376
H        -28.73962       -1.88873      -13.09863
H        -30.33511       -2.39078       -9.91436
H        -31.82982       -3.05904      -10.62156
H        -31.23824       -1.42205      -11.13573
H        -32.80213       -2.77793      -12.61550
H        -34.56199       -3.50396      -16.73480
H        -36.65128       -0.04534      -17.51999
H        -35.00250       -0.59852      -17.95052
H        -33.41996        0.80990      -16.92358
H        -38.44292       -1.46589      -17.67937
H        -40.04886       -4.78415      -19.49379
H        -39.96666       -4.19628      -17.80808
H        -38.69565       -5.70418      -16.52478
H        -40.48670       -3.41367      -21.17620
H        -42.62801       -0.14289      -22.39703
H        -40.99003       -0.76942      -22.76767
H        -39.57351        1.76006      -20.77215
H        -44.42776       -1.52514      -22.28219
H        -45.75551       -2.98417      -25.51445
H        -45.69799       -1.46576      -24.54686
H        -42.79699       -0.38773      -26.19755
H        -47.80721       -2.91741      -22.01839
H        -34.14764       -5.17360      -15.38325
H        -31.99481       -5.76491      -13.27328
H        -31.82560       -5.95117      -15.06644
H        -33.01287       -6.95062      -14.16083
H        -34.18330       -4.67636      -12.33493
H        -35.10184       -5.93217      -13.23990
H        -35.47965       -4.20073      -13.49989
H        -26.72666       -2.29612      -13.81699
H        -23.87152       -1.51416      -12.98374
H        -25.08055       -0.46831      -13.81795
H        -24.46314       -1.95309      -14.61804
H        -24.70815       -3.91215      -12.13281
H        -25.20336       -4.22531      -13.83607
H        -26.40431       -4.39485      -12.51615
H        -21.74354       -3.53046       -6.72800
C         -5.04291       -2.85940        3.38550
H         -6.17949       -4.70218        3.41476
H         -6.68777       -3.51618        4.65731
C         -3.90809       -3.60415        4.14320
H         -5.14195       -1.81433        3.75022
H         -4.77791       -2.84168        2.30703
C         -2.51668       -2.93278        4.09401
H         -3.82185       -4.61189        3.68006
H         -4.18456       -3.73655        5.21285
C         -1.44077       -3.89811        4.64815
H         -2.54162       -1.99280        4.68803
H         -2.24937       -2.68610        3.04419
C         -0.02814       -3.28642        4.69869
H         -1.41546       -4.79279        3.98702
H         -1.71583       -4.22785        5.67432
C          1.01117       -4.34809        5.10938
H         -0.02021       -2.44870        5.43029
H          0.24881       -2.89094        3.69751
C          2.42074       -3.76668        5.21397
H          1.02286       -5.16092        4.34978
H          0.74035       -4.78905        6.09320
H          2.73736       -3.32632        4.24492
H          3.13717       -4.57326        5.48344
H          2.45990       -2.98605        6.00282
