140
	Energy:     260.5677019
C        -31.52878       -0.34260       23.47249
C        -30.54114       -0.05817       24.41299
C        -29.38553       -0.83599       24.26208
C        -29.46462       -1.74030       23.20839
S        -30.97284       -1.58403       22.47653
H        -30.63391        0.71400       25.16558
H        -28.51203       -0.71916       24.89000
C        -28.38651       -2.62531       22.73845
C        -28.49434       -3.55534       21.71009
C        -27.28650       -4.19276       21.41042
C        -26.22357       -3.75864       22.19601
S        -26.79127       -2.60345       23.28520
H        -29.41169       -3.75509       21.17212
H        -27.19169       -4.92480       20.61924
C        -24.82058       -4.17585       22.03691
C        -23.72863       -3.67522       22.73997
C        -22.50201       -4.19360       22.30218
C        -22.63097       -5.10667       21.26016
S        -24.26491       -5.27758       20.89189
H        -23.80712       -2.93621       23.52646
H        -21.55197       -3.89320       22.72417
C        -21.53248       -5.77196       20.54079
C        -21.68655       -6.71317       19.52918
C        -20.47493       -7.13575       18.97542
C        -19.36087       -6.52316       19.54233
S        -19.88675       -5.46890       20.75170
H        -22.64588       -7.07758       19.18606
H        -20.41950       -7.85295       18.16678
C        -32.80311        0.39675       23.31196
C        -17.96398       -6.73504       19.09925
O        -33.04882        1.32183       24.07326
O        -17.75353       -7.53017       18.19387
N        -33.64910        0.10538       22.28179
N        -16.93283       -6.03208       19.65267
C        -34.81704        0.91113       21.94495
H        -33.42247       -0.67917       21.65180
C        -34.58290        1.50301       20.54746
C        -15.55245       -6.14081       19.18523
H        -17.12813       -5.36824       20.41733
C        -15.06426       -4.75523       18.69738
C        -15.84640       -4.19197       17.53239
H        -14.00548       -4.81778       18.37106
H        -15.12318       -4.03471       19.54224
C        -14.64726       -6.65895       20.28894
H        -34.94201        1.75575       22.65704
C        -36.09549        0.09147       21.96965
O        -36.05666       -1.08223       22.30605
O        -15.09903       -6.84620       21.41010
H        -15.47443       -6.86250       18.34264
N        -37.27748        0.68920       21.63077
N        -13.33258       -6.91049       20.01843
C        -38.59899        0.06443       21.53751
H        -37.25339        1.69691       21.41398
C        -38.74537       -0.92297       20.32988
C        -12.36854       -7.40324       20.99982
H        -12.99772       -6.72387       19.06030
H        -12.38333       -6.72140       21.87840
C        -12.76920       -8.82312       21.48899
C        -10.96650       -7.28836       20.38834
C        -37.95945       -2.23639       20.44173
C        -38.39593       -0.22076       19.00923
H        -39.81606       -1.21142       20.26668
H        -36.86933       -2.07454       20.35133
H        -38.24318       -2.91065       19.60536
H        -38.19892       -2.75647       21.39307
H        -37.32612        0.07908       18.99311
H        -39.02341        0.68622       18.87709
H        -38.58608       -0.89805       18.14920
C        -11.89183       -9.32072       22.61414
O        -11.81279       -8.64781       23.78221
O        -11.26731      -10.36171       22.48536
C        -39.08755       -0.50336       22.86340
H        -39.30838        0.89433       21.31273
O        -38.33137       -0.53508       23.82121
H        -33.64913        2.10498       20.54899
H        -35.41047        2.17293       20.23826
H        -34.48147        0.69237       19.79372
N        -40.39250       -0.90765       22.97000
H        -40.97770       -0.82123       22.12544
C        -41.10806       -1.42019       24.14508
O        -10.58682       -6.15769       20.12879
N        -10.17371       -8.37722       20.11578
H        -10.53953       -9.31054       20.33481
C         -8.83438       -8.41383       19.50429
C        -42.27557       -0.49742       24.46427
O        -42.38358        0.56321       23.86198
H        -41.52074       -2.41351       23.86288
C        -40.24299       -1.62502       25.40110
N        -43.20469       -0.85279       25.39833
H        -43.10024       -1.75983       25.87585
C        -44.34520       -0.01441       25.75353
C         -8.30813       -7.03704       19.00706
H         -8.92997       -9.07928       18.61867
C         -7.86451       -9.06881       20.48505
O         -8.20287       -9.20402       21.65344
H         -9.05414       -6.58670       18.31811
C         -7.02511       -7.10538       18.22040
H         -8.15894       -6.36784       19.88326
O         -6.95947       -7.79329       17.06008
O         -6.03389       -6.51693       18.62240
H         -7.72718       -8.25693       16.69807
N         -6.63923       -9.51040       20.07501
H         -6.38059       -9.39253       19.08611
C         -5.66895      -10.13481       20.96989
C         -6.19726      -11.48635       21.50954
C         -4.36024      -10.35096       20.23190
H         -5.48211       -9.44130       21.81882
O         -4.32504      -11.07370       19.24763
O         -3.22368       -9.75264       20.64856
H         -3.20358       -9.17336       21.42282
C         -5.22068      -12.13700       22.45702
H         -7.14898      -11.35119       22.06015
H         -6.39792      -12.16604       20.65141
O         -4.75124      -13.23103       22.18727
O         -4.86401      -11.53121       23.60972
H         -5.22633      -10.67243       23.86780
H        -44.30681        0.94188       25.18578
C        -44.26401        0.34409       27.21965
C        -45.68525       -0.69706       25.34435
O        -44.26026       -0.52719       28.07658
O        -44.17185        1.64126       27.58259
C        -45.93887       -2.05837       26.01591
C        -46.87728        0.23870       25.60255
H        -45.63828       -0.87542       24.24664
H        -44.11167        1.90293       28.51228
H        -40.84150       -2.07180       26.22175
H        -39.83814       -0.65781       25.76809
H        -39.41434       -2.33230       25.18569
H        -47.81728       -0.22383       25.23260
H        -46.73566        1.20056       25.06493
H        -46.99076        0.44874       26.68743
H        -46.04171       -1.95913       27.11522
H        -45.12525       -2.77539       25.78667
H        -46.88224       -2.49791       25.62687
O        -15.52092       -2.98285       17.02946
O        -16.76590       -4.81526       17.02570
H        -14.79664       -2.45908       17.39987
H        -12.76119       -9.53229       20.63266
H        -13.80095       -8.81592       21.89044
H        -12.31379       -7.83615       23.94113
