140
	Energy:     252.6416404
C        -23.48077       75.42813      -71.87789
C        -22.35897       75.09130      -71.12622
C        -22.64577       74.24687      -70.04774
C        -23.99389       73.91904      -69.94899
S        -24.82863       74.67789      -71.20035
C        -24.59637       73.04543      -68.93016
C        -25.94385       72.71351      -68.83693
C        -26.22884       71.84664      -67.77628
C        -25.10574       71.49685      -67.03370
S        -23.75963       72.26699      -67.69221
C        -25.08600       70.58275      -65.88092
C        -23.96098       70.21968      -65.14773
C        -24.23644       69.30025      -64.12900
C        -25.57875       68.94090      -64.05925
S        -26.42395       69.77122      -65.25692
C        -26.16265       67.96083      -63.12950
C        -27.50159       67.58861      -63.07340
C        -27.75954       66.58625      -62.13124
C        -26.62470       66.16730      -61.44187
S        -25.30338       67.05611      -61.99808
C        -23.48597       76.29668      -73.07324
C        -26.58350       65.07504      -60.44301
O        -22.44026       76.78518      -73.47071
O        -27.61182       64.45785      -60.20297
N        -25.41264       64.72973      -59.83441
C        -25.27648       63.58244      -58.94960
C        -24.30188       62.59120      -59.59972
C        -24.88769       64.04244      -57.55004
O        -25.70486       64.71306      -56.94043
N        -23.70204       63.68620      -56.96302
C        -23.27510       63.98243      -55.59414
C        -22.89738       65.47481      -55.31684
C        -24.23001       63.36484      -54.57946
C        -24.03564       66.50334      -55.39869
C        -21.75690       65.91622      -56.24812
O        -25.35388       63.82188      -54.43377
O        -22.12511       60.00277      -45.60022
C        -23.04251       58.57555      -43.37294
C        -22.08975       57.64868      -42.62536
O        -24.62882       76.56254      -73.74256
C        -24.98079       60.14777      -53.47954
O        -23.89527       59.43396      -49.44800
C        -24.69153       61.54944      -52.93379
N        -23.83845       62.26463      -53.87343
N        -22.78421       60.88203      -51.45989
C        -22.73891       59.77365      -49.23894
C        -24.02027       61.45517      -51.57820
C        -20.58876       62.75349      -50.61610
C        -22.01714       60.67677      -50.22911
O        -24.62222       61.86411      -50.59808
C        -21.44710       61.98980      -49.59683
C        -22.48090       62.93850      -48.97593
O        -23.03865       56.03341      -49.23036
C        -21.86967       56.42211      -48.67763
O        -20.83456       56.27945      -49.30864
C        -21.82653       57.01676      -47.29288
C        -22.63281       58.33128      -47.21182
C        -22.59450       58.89031      -45.80065
N        -23.07357       58.14615      -44.76264
O        -20.91935       57.65263      -42.98163
N        -22.06464       59.28465      -48.15914
O        -18.69640       56.58992      -38.64712
C        -19.46289       55.97066      -39.36736
O        -19.27215       54.64032      -39.51077
O        -25.82274       54.52338      -40.57113
C        -20.55748       56.74404      -40.07654
C        -25.33949       53.91523      -39.62942
O        -23.01635       50.25218      -38.84309
O        -23.00254       55.45208      -39.09687
C        -21.56655       55.91906      -40.92111
C        -22.36338       54.98128      -40.02691
C        -24.59679       52.62953      -39.86878
C        -22.52322       51.27050      -39.58120
N        -22.36195       53.63649      -40.25817
O        -21.58837       51.04397      -40.33412
C        -23.10680       52.67215      -39.44523
N        -22.49016       56.80963      -41.62185
O        -25.50356       54.39372      -38.37757
H        -21.35974       75.44200      -71.34914
H        -21.88696       73.88762      -69.36512
H        -26.70215       73.07893      -69.51677
H        -27.22634       71.48350      -67.56701
H        -22.96578       70.59488      -65.34707
H        -23.47181       68.90304      -63.47454
H        -28.27112       68.01153      -63.70569
H        -28.74523       66.16763      -61.97487
H        -24.55913       65.27230      -60.03593
H        -26.24011       63.03688      -58.84243
H        -23.30541       63.05682      -59.75827
H        -24.69507       62.27802      -60.59051
H        -24.19621       61.68127      -58.97094
H        -23.04191       63.10514      -57.49628
H        -22.30757       63.44491      -55.46537
H        -22.50881       65.51201      -54.27406
H        -24.40364       66.62301      -56.43598
H        -23.65752       67.49898      -55.08153
H        -24.87010       66.24130      -54.71895
H        -22.08929       65.90373      -57.30840
H        -20.88242       65.23985      -56.14009
H        -21.42365       66.94489      -55.99228
H        -25.48464       76.20131      -73.47452
H        -25.50208       60.22753      -54.45730
H        -25.63796       59.59222      -52.77655
H        -24.04558       59.56825      -53.62935
H        -25.67491       62.05770      -52.81634
H        -22.89830       61.87930      -54.04774
H        -22.34133       60.52122      -52.31784
H        -19.78040       62.09936      -51.00664
H        -20.11410       63.63659      -50.13719
H        -21.20876       63.10372      -51.46926
H        -21.11632       60.09367      -50.53077
H        -20.77296       61.68504      -48.76744
H        -23.10863       63.42497      -49.74555
H        -21.95653       63.75831      -48.43965
H        -23.11312       62.40062      -48.23841
H        -23.87843       56.11321      -48.75735
H        -20.76994       57.22108      -47.00814
H        -22.23039       56.25940      -46.58985
H        -23.69605       58.11359      -47.45171
H        -23.46606       57.21242      -44.95745
H        -21.07839       59.55527      -48.02469
H        -19.78433       54.08335      -40.10606
H        -20.04101       57.48614      -40.71715
H        -21.13336       57.31184      -39.31310
H        -23.72884       50.37922      -38.20189
H        -21.02056       55.32517      -41.68709
H        -24.64687       52.36201      -40.94803
H        -25.13739       51.84453      -39.29956
H        -21.78019       53.29033      -41.03512
H        -22.99659       52.93412      -38.36980
H        -23.48710       56.76474      -41.37073
H        -25.14962       53.92862      -37.60666
O        -23.64330       59.54022      -40.80582
C        -24.62549       59.18324      -41.43836
O        -25.84487       59.29103      -40.87089
C        -24.49396       58.63288      -42.84178
H        -26.64655       59.01874      -41.33911
H        -25.08200       59.30034      -43.50860
H        -24.95279       57.62180      -42.89007
H        -22.62858       59.60475      -43.28540
